.model 1N6263 D IS=3.8736E-9 N=1.0099 RS=0.1 IKF=18.247 CJO=1.7738E-12 M=.1955 VJ=.3905 ISR=6.2866E-9 NR=3.9204 FC=0.5 TT=0 XTI=2