Version 4
SHEET 1 1460 1176
WIRE 1216 -240 240 -240
WIRE 1216 -112 1216 -240
WIRE 1296 -112 1216 -112
WIRE 1456 -112 1376 -112
WIRE 640 -96 560 -96
WIRE 912 -96 720 -96
WIRE 240 -48 240 -240
WIRE 240 -48 64 -48
WIRE -368 -32 -368 -128
WIRE -208 -32 -208 -128
WIRE 1312 0 1248 0
WIRE 688 16 624 16
WIRE 1456 16 1456 -112
WIRE 1456 16 1360 16
WIRE 912 32 912 -96
WIRE 912 32 736 32
WIRE 1008 32 912 32
WIRE 1216 32 1216 -112
WIRE 1216 32 1088 32
WIRE 1312 32 1216 32
WIRE 560 48 560 -96
WIRE 560 48 464 48
WIRE 688 48 560 48
WIRE 624 176 624 16
WIRE 1248 176 1248 0
WIRE -16 208 -16 -48
WIRE -16 208 -240 208
WIRE 240 256 240 -48
WIRE 464 256 464 48
WIRE -240 304 -240 208
WIRE -80 304 -240 304
WIRE 96 304 0 304
WIRE 176 304 96 304
WIRE 624 304 528 304
WIRE 816 304 624 304
WIRE 624 368 624 304
WIRE 1072 368 1072 304
WIRE 96 400 96 304
WIRE 240 416 240 352
WIRE 352 416 240 416
WIRE 464 416 464 352
WIRE 464 416 352 416
WIRE 1072 464 1072 448
WIRE 1072 464 928 464
WIRE -240 496 -240 304
WIRE -240 496 -480 496
WIRE 96 496 96 480
WIRE 352 512 352 416
WIRE 1072 512 1072 464
WIRE 928 560 928 464
WIRE 928 560 416 560
WIRE 1008 560 928 560
WIRE -480 576 -480 496
WIRE 352 640 352 608
WIRE 608 640 352 640
WIRE 1072 640 1072 608
WIRE 608 672 608 640
WIRE 224 688 128 688
WIRE 432 688 304 688
WIRE -480 720 -480 656
WIRE 272 800 240 800
WIRE 432 816 432 688
WIRE 432 816 320 816
WIRE 624 816 432 816
WIRE 816 816 816 304
WIRE 816 816 704 816
WIRE 272 832 208 832
WIRE -240 880 -240 496
WIRE -96 880 -240 880
WIRE 128 880 128 688
WIRE 128 880 -16 880
WIRE 208 880 208 832
WIRE 208 880 128 880
WIRE 240 960 240 800
FLAG -368 48 0
FLAG -208 48 0
FLAG -368 -128 vcc
FLAG -208 -128 vee
FLAG 304 784 vcc
FLAG 304 848 vee
FLAG 240 960 0
FLAG 624 448 0
FLAG 720 64 vee
FLAG 720 0 vcc
FLAG 624 176 0
FLAG 1248 176 0
FLAG 1344 -16 vcc
FLAG 1344 48 vee
FLAG 96 496 0
FLAG 1072 720 vee
FLAG 1072 304 vcc
FLAG 608 752 vee
FLAG -480 720 0
SYMBOL npn 176 256 R0
SYMATTR InstName Q1
SYMATTR Value 2N3904
SYMBOL npn 528 256 M0
SYMATTR InstName Q2
SYMATTR Value 2N3904
SYMBOL Res 80 384 R0
SYMATTR InstName R2
SYMATTR Value 162
SYMBOL Res 16 288 R90
WINDOW 0 0 56 VBottom 2
WINDOW 3 32 56 VTop 2
SYMATTR InstName R3
SYMATTR Value 9.53k
SYMBOL AutoGenerated/LM741 208 816 R0
SYMATTR InstName U1
SYMBOL Voltage -368 -48 R0
SYMATTR InstName V1
SYMATTR Value 12
SYMBOL Voltage -208 -48 R0
SYMATTR InstName V2
SYMATTR Value -12
SYMBOL Res 0 864 R90
WINDOW 0 0 56 VBottom 2
WINDOW 3 32 56 VTop 2
SYMATTR InstName R4
SYMATTR Value 10k
SYMBOL Res 320 672 R90
WINDOW 0 0 56 VBottom 2
WINDOW 3 32 56 VTop 2
SYMATTR InstName R5
SYMATTR Value 10k
SYMBOL Res 720 800 R90
WINDOW 0 0 56 VBottom 2
WINDOW 3 32 56 VTop 2
SYMATTR InstName R6
SYMATTR Value 9.53k
SYMBOL Res 608 352 R0
SYMATTR InstName R7
SYMATTR Value 162
SYMBOL Res 80 -64 R90
WINDOW 0 0 56 VBottom 2
WINDOW 3 32 56 VTop 2
SYMATTR InstName R8
SYMATTR Value 2.32k
SYMBOL AutoGenerated/LM741 624 32 R0
SYMATTR InstName U2
SYMBOL Res 736 -112 R90
WINDOW 0 0 56 VBottom 2
WINDOW 3 32 56 VTop 2
SYMATTR InstName R9
SYMATTR Value 10k
SYMBOL Res 1104 16 R90
WINDOW 0 0 56 VBottom 2
WINDOW 3 32 56 VTop 2
SYMATTR InstName R10
SYMATTR Value 10k
SYMBOL AutoGenerated/LM741 1248 16 R0
SYMATTR InstName U3
SYMBOL Res 1392 -128 R90
WINDOW 0 0 56 VBottom 2
WINDOW 3 32 56 VTop 2
SYMATTR InstName R11
SYMATTR Value 9.09k
SYMBOL npn 1008 512 R0
SYMATTR InstName Q3
SYMATTR Value 2N3904
SYMBOL Res 1056 352 R0
SYMATTR InstName R12
SYMATTR Value 24.5k
SYMBOL Res 1056 624 R0
SYMATTR InstName R13
SYMATTR Value 5
SYMBOL npn 416 512 M0
SYMATTR InstName Q4
SYMATTR Value 2N3904
SYMBOL Res 592 656 R0
SYMATTR InstName R1
SYMATTR Value 5
SYMBOL Voltage -480 560 R0
SYMATTR InstName V3
SYMATTR Value PULSE(-1 1 0 100u 100u 1n 200u 1000)
TEXT -432 1160 Left 2 !.tran 10m
